
     RDKit          3D

 13 12  0  0  0  0  0  0  0  0999 V2000
  -24.3940  -18.6200  -18.4440 C   0  0  0  0  0  0  0  0  0  0  0  0
  -25.3610  -19.4130  -18.5220 O   0  0  0  0  0  0  0  0  0  0  0  0
  -23.5040  -18.5690  -17.5000 O   0  0  0  0  0  0  0  0  0  0  0  0
  -24.2530  -17.6600  -19.5940 C   0  0  0  0  0  0  0  0  0  0  0  0
  -25.4630  -16.7880  -19.7210 C   0  0  1  0  0  0  0  0  0  0  0  0
  -25.8140  -16.4590  -18.3380 O   0  0  0  0  0  0  0  0  0  0  0  0
  -25.2090  -15.5400  -20.5490 C   0  0  0  0  0  0  0  0  0  0  0  0
  -24.0460  -14.7520  -19.9440 C   0  0  0  0  0  0  0  0  0  0  0  0
  -22.8350  -15.0950  -20.2120 O   0  0  0  0  0  0  0  0  0  0  0  0
  -24.3630  -13.7810  -19.2120 O   0  0  0  0  0  0  0  0  0  0  0  0
  -26.5530  -17.5700  -20.4420 C   0  0  0  0  0  0  0  0  0  0  0  0
  -26.2570  -18.2940  -21.4570 O   0  0  0  0  0  0  0  0  0  0  0  0
  -27.6680  -17.4450  -19.9150 O   0  0  0  0  0  0  0  0  0  0  0  0
  1  2  1  0
  1  3  1  0
  1  4  1  0
  4  5  1  0
  5  6  1  1
  5  7  1  0
  5 11  1  0
  7  8  1  0
 11 12  1  0
 11 13  1  0
  8  9  1  0
  8 10  1  0
M  END
