
     RDKit          3D

 31 33  0  0  0  0  0  0  0  0999 V2000
  223.8390  173.8670  272.7960 P   0  0  0  0  0  0  0  0  0  0  0  0
  224.1350  174.5070  271.4820 O   0  0  0  0  0  0  0  0  0  0  0  0
  222.4610  174.4040  273.3380 O   0  0  0  0  0  0  0  0  0  0  0  0
  224.9840  174.2010  273.8320 O   0  0  0  0  0  0  0  0  0  0  0  0
  223.1850  171.5710  274.0550 P   0  0  0  0  0  0  0  0  0  0  0  0
  223.0540  172.6910  275.0320 O   0  0  0  0  0  0  0  0  0  0  0  0
  224.1750  170.4870  274.5740 O   0  0  0  0  0  0  0  0  0  0  0  0
  223.7240  172.1960  272.6000 N   0  0  0  0  0  0  0  0  0  0  0  0
  221.0540  171.2410  272.4750 P   0  0  0  0  0  0  0  0  0  0  0  0
  220.8490  172.6950  272.2860 O   0  0  0  0  0  0  0  0  0  0  0  0
  219.7740  170.4050  272.4790 O   0  0  0  0  0  0  0  0  0  0  0  0
  221.7840  170.9380  273.8370 O   0  0  0  0  0  0  0  0  0  0  0  0
  222.0590  170.7290  271.3770 O   0  0  0  0  0  0  0  0  0  0  0  0
  222.3760  169.3290  271.2790 C   0  0  0  0  0  0  0  0  0  0  0  0
  222.6670  168.9900  269.8410 C   0  0  1  0  0  0  0  0  0  0  0  0
  221.6760  168.0620  269.3610 O   0  0  0  0  0  0  0  0  0  0  0  0
  222.6130  170.1610  268.8690 C   0  0  1  0  0  0  0  0  0  0  0  0
  223.8740  170.8130  268.8010 O   0  0  0  0  0  0  0  0  0  0  0  0
  222.2780  169.4730  267.5490 C   0  0  1  0  0  0  0  0  0  0  0  0
  223.4550  168.9300  266.9720 O   0  0  0  0  0  0  0  0  0  0  0  0
  221.3750  168.3260  268.0040 C   0  0  2  0  0  0  0  0  0  0  0  0
  219.9500  168.6030  267.9020 N   0  0  0  0  0  0  0  0  0  0  0  0
  219.1200  169.0720  268.8850 C   0  0  0  0  0  0  0  0  0  0  0  0
  217.8710  169.2130  268.5100 N   0  0  0  0  0  0  0  0  0  0  0  0
  217.8820  168.8010  267.1870 C   0  0  0  0  0  0  0  0  0  0  0  0
  216.8660  168.7110  266.2170 C   0  0  0  0  0  0  0  0  0  0  0  0
  215.5930  169.0430  266.4400 N   0  0  0  0  0  0  0  0  0  0  0  0
  217.2100  168.2620  264.9900 N   0  0  0  0  0  0  0  0  0  0  0  0
  218.4830  167.9350  264.7570 C   0  0  0  0  0  0  0  0  0  0  0  0
  219.5230  167.9730  265.5940 N   0  0  0  0  0  0  0  0  0  0  0  0
  219.1520  168.4220  266.7990 C   0  0  0  0  0  0  0  0  0  0  0  0
  1  2  1  0
  1  3  1  0
  1  4  1  0
  1  8  1  0
  8  5  1  0
  5  6  1  0
  5  7  1  0
  5 12  1  0
 12  9  1  0
  9 10  1  0
  9 11  1  0
  9 13  1  0
 13 14  1  0
 15 14  1  1
 15 16  1  0
 15 17  1  0
 16 21  1  0
 17 18  1  6
 17 19  1  0
 21 19  1  0
 21 22  1  1
 19 20  1  1
 22 23  1  0
 22 31  1  0
 23 24  1  0
 31 25  1  0
 31 30  1  0
 24 25  1  0
 25 26  1  0
 26 27  1  0
 26 28  1  0
 28 29  1  0
 29 30  1  0
M  END
$$$$

     RDKit          3D

 31 33  0  0  0  0  0  0  0  0999 V2000
  188.4680  238.4400  272.7540 P   0  0  0  0  0  0  0  0  0  0  0  0
  188.1710  237.8010  271.4400 O   0  0  0  0  0  0  0  0  0  0  0  0
  189.8450  237.9020  273.2960 O   0  0  0  0  0  0  0  0  0  0  0  0
  187.3220  238.1080  273.7900 O   0  0  0  0  0  0  0  0  0  0  0  0
  189.1250  240.7350  274.0130 P   0  0  0  0  0  0  0  0  0  0  0  0
  189.2540  239.6150  274.9900 O   0  0  0  0  0  0  0  0  0  0  0  0
  188.1360  241.8200  274.5310 O   0  0  0  0  0  0  0  0  0  0  0  0
  188.5840  240.1110  272.5580 N   0  0  0  0  0  0  0  0  0  0  0  0
  191.2550  241.0630  272.4320 P   0  0  0  0  0  0  0  0  0  0  0  0
  191.4590  239.6080  272.2440 O   0  0  0  0  0  0  0  0  0  0  0  0
  192.5370  241.8960  272.4360 O   0  0  0  0  0  0  0  0  0  0  0  0
  190.5260  241.3660  273.7950 O   0  0  0  0  0  0  0  0  0  0  0  0
  190.2510  241.5760  271.3350 O   0  0  0  0  0  0  0  0  0  0  0  0
  189.9350  242.9760  271.2370 C   0  0  0  0  0  0  0  0  0  0  0  0
  189.6450  243.3150  269.7990 C   0  0  1  0  0  0  0  0  0  0  0  0
  190.6370  244.2420  269.3190 O   0  0  0  0  0  0  0  0  0  0  0  0
  189.6980  242.1440  268.8270 C   0  0  1  0  0  0  0  0  0  0  0  0
  188.4360  241.4930  268.7590 O   0  0  0  0  0  0  0  0  0  0  0  0
  190.0330  242.8310  267.5070 C   0  0  1  0  0  0  0  0  0  0  0  0
  188.8570  243.3760  266.9290 O   0  0  0  0  0  0  0  0  0  0  0  0
  190.9380  243.9770  267.9620 C   0  0  2  0  0  0  0  0  0  0  0  0
  192.3630  243.6990  267.8600 N   0  0  0  0  0  0  0  0  0  0  0  0
  193.1920  243.2290  268.8420 C   0  0  0  0  0  0  0  0  0  0  0  0
  194.4410  243.0860  268.4670 N   0  0  0  0  0  0  0  0  0  0  0  0
  194.4300  243.4980  267.1440 C   0  0  0  0  0  0  0  0  0  0  0  0
  195.4460  243.5870  266.1740 C   0  0  0  0  0  0  0  0  0  0  0  0
  196.7190  243.2530  266.3970 N   0  0  0  0  0  0  0  0  0  0  0  0
  195.1020  244.0360  264.9470 N   0  0  0  0  0  0  0  0  0  0  0  0
  193.8300  244.3640  264.7140 C   0  0  0  0  0  0  0  0  0  0  0  0
  192.7900  244.3280  265.5510 N   0  0  0  0  0  0  0  0  0  0  0  0
  193.1600  243.8780  266.7560 C   0  0  0  0  0  0  0  0  0  0  0  0
  1  2  1  0
  1  3  1  0
  1  4  1  0
  1  8  1  0
  8  5  1  0
  5  6  1  0
  5  7  1  0
  5 12  1  0
 12  9  1  0
  9 10  1  0
  9 11  1  0
  9 13  1  0
 13 14  1  0
 15 14  1  1
 15 16  1  0
 15 17  1  0
 16 21  1  0
 17 18  1  6
 17 19  1  0
 21 19  1  0
 21 22  1  1
 19 20  1  1
 22 23  1  0
 22 31  1  0
 23 24  1  0
 31 25  1  0
 31 30  1  0
 24 25  1  0
 25 26  1  0
 26 27  1  0
 26 28  1  0
 28 29  1  0
 29 30  1  0
M  END
$$$$
