
     RDKit          3D

 14 15  0  0  0  0  0  0  0  0999 V2000
  -17.7160  -13.7720   -1.9770 N   0  0  0  0  0  0  0  0  0  0  0  0
  -16.6340  -16.1050   -7.4390 C   0  0  1  0  0  0  0  0  0  0  0  0
  -17.4820  -15.8460   -6.1670 C   0  0  0  0  0  0  0  0  0  0  0  0
  -17.4640  -14.6290   -4.0390 C   0  0  1  0  0  0  0  0  0  0  0  0
  -16.9550  -13.7600   -3.1310 C   0  0  0  0  0  0  0  0  0  0  0  0
  -16.9370  -14.9630   -5.2050 N   0  0  0  0  0  0  0  0  0  0  0  0
  -14.3090  -15.1220   -7.3410 C   0  0  0  0  0  0  0  0  0  0  0  0
  -17.4140  -16.4090   -8.5600 O   0  0  0  0  0  0  0  0  0  0  0  0
  -15.7280  -14.9010   -7.8310 C   0  0  1  0  0  0  0  0  0  0  0  0
  -15.8080  -14.8890   -9.3460 C   0  0  0  0  0  0  0  0  0  0  0  0
  -16.5830  -16.1920   -9.6650 C   0  0  0  0  0  0  0  0  0  0  0  0
  -18.6820  -14.5430   -1.9770 N   0  0  0  0  0  0  0  0  0  0  0  0
  -18.5910  -16.3890   -6.0420 O   0  0  0  0  0  0  0  0  0  0  0  0
  -18.8740  -15.4220   -3.4110 S   0  0  0  0  0  0  0  0  0  0  0  0
  1  5  1  0
  1 12  1  0
  5  4  1  0
 12 14  1  0
  2  3  1  1
  2  8  1  0
  2  9  1  0
  3  6  1  0
  3 13  1  0
  8 11  1  0
  9  7  1  6
  9 10  1  0
  4  6  1  1
  4 14  1  0
 11 10  1  0
M  END
$$$$

     RDKit          3D

 14 15  0  0  0  0  0  0  0  0999 V2000
   -3.0400    0.3230    4.6900 N   0  0  0  0  0  0  0  0  0  0  0  0
   -2.2230    6.2560    3.3530 C   0  0  1  0  0  0  0  0  0  0  0  0
   -1.9440    4.9160    4.0930 C   0  0  0  0  0  0  0  0  0  0  0  0
   -2.6290    2.5300    4.2500 C   0  0  0  0  0  0  0  0  0  0  0  0
   -3.3880    1.4370    3.9070 C   0  0  0  0  0  0  0  0  0  0  0  0
   -2.7300    3.7860    3.7330 N   0  0  0  0  0  0  0  0  0  0  0  0
   -4.1910    6.0780    1.6730 C   0  0  0  0  0  0  0  0  0  0  0  0
   -1.0600    7.0640    3.3390 O   0  0  0  0  0  0  0  0  0  0  0  0
   -2.6680    6.0480    1.8670 C   0  0  1  0  0  0  0  0  0  0  0  0
   -1.9370    7.1970    1.1730 C   0  0  0  0  0  0  0  0  0  0  0  0
   -0.6560    7.3090    2.0060 C   0  0  0  0  0  0  0  0  0  0  0  0
   -2.1320    0.5000    5.5280 N   0  0  0  0  0  0  0  0  0  0  0  0
   -1.0670    4.8760    4.9710 O   0  0  0  0  0  0  0  0  0  0  0  0
   -1.4860    2.1180    5.5360 S   0  0  0  0  0  0  0  0  0  0  0  0
  1  5  1  0
  1 12  1  0
  5  4  1  0
 12 14  1  0
  2  3  1  6
  2  8  1  0
  2  9  1  0
  3  6  1  0
  3 13  1  0
  8 11  1  0
  9  7  1  1
  9 10  1  0
  6  4  1  0
  4 14  1  0
 11 10  1  0
M  END
$$$$

     RDKit          3D

 14 15  0  0  0  0  0  0  0  0999 V2000
  -22.4980   27.2270  -59.4300 N   0  0  0  0  0  0  0  0  0  0  0  0
  -21.8470   30.4000  -54.2540 C   0  0  1  0  0  0  0  0  0  0  0  0
  -21.8460   30.2380  -55.7920 C   0  0  0  0  0  0  0  0  0  0  0  0
  -22.2540   28.6090  -57.6280 C   0  0  1  0  0  0  0  0  0  0  0  0
  -22.6350   27.3780  -58.0480 C   0  0  0  0  0  0  0  0  0  0  0  0
  -22.2420   28.9880  -56.3380 N   0  0  0  0  0  0  0  0  0  0  0  0
  -21.3770   27.9220  -53.5560 C   0  0  0  0  0  0  0  0  0  0  0  0
  -22.7200   31.3960  -53.7840 O   0  0  0  0  0  0  0  0  0  0  0  0
  -22.2690   29.1530  -53.4250 C   0  0  1  0  0  0  0  0  0  0  0  0
  -22.1600   29.8390  -52.0710 C   0  0  0  0  0  0  0  0  0  0  0  0
  -22.8410   31.2040  -52.3700 C   0  0  0  0  0  0  0  0  0  0  0  0
  -22.0600   28.2400  -60.0200 N   0  0  0  0  0  0  0  0  0  0  0  0
  -21.5100   31.1970  -56.4760 O   0  0  0  0  0  0  0  0  0  0  0  0
  -21.7180   29.6090  -58.9750 S   0  0  0  0  0  0  0  0  0  0  0  0
  1  5  1  0
  1 12  1  0
  5  4  1  0
 12 14  1  0
  2  3  1  6
  2  8  1  0
  2  9  1  0
  3  6  1  0
  3 13  1  0
  8 11  1  0
  9  7  1  1
  9 10  1  0
  4  6  1  1
  4 14  1  0
 11 10  1  0
M  END
$$$$

     RDKit          3D

 14 15  0  0  0  0  0  0  0  0999 V2000
  -26.7490    7.3080  -64.0480 N   0  0  0  0  0  0  0  0  0  0  0  0
  -31.5300    3.2840  -64.0390 C   0  0  1  0  0  0  0  0  0  0  0  0
  -30.0640    3.7560  -64.2700 C   0  0  0  0  0  0  0  0  0  0  0  0
  -28.4710    5.7300  -64.0910 C   0  0  0  0  0  0  0  0  0  0  0  0
  -28.1090    7.0310  -63.7420 C   0  0  0  0  0  0  0  0  0  0  0  0
  -29.7210    5.1080  -63.9440 N   0  0  0  0  0  0  0  0  0  0  0  0
  -32.1200    1.4200  -65.7380 C   0  0  0  0  0  0  0  0  0  0  0  0
  -32.3550    4.2720  -63.4470 O   0  0  0  0  0  0  0  0  0  0  0  0
  -32.1450    2.9190  -65.4240 C   0  0  1  0  0  0  0  0  0  0  0  0
  -33.5610    3.5680  -65.3800 C   0  0  0  0  0  0  0  0  0  0  0  0
  -33.4090    4.6780  -64.3250 C   0  0  0  0  0  0  0  0  0  0  0  0
  -26.1180    6.3750  -64.5730 N   0  0  0  0  0  0  0  0  0  0  0  0
  -29.2560    2.9400  -64.7040 O   0  0  0  0  0  0  0  0  0  0  0  0
  -27.0620    4.9230  -64.8090 S   0  0  0  0  0  0  0  0  0  0  0  0
  1  5  1  0
  1 12  1  0
  5  4  1  0
 12 14  1  0
  2  3  1  6
  2  8  1  0
  2  9  1  0
  3  6  1  0
  3 13  1  0
  8 11  1  0
  9  7  1  1
  9 10  1  0
  6  4  1  0
  4 14  1  0
 11 10  1  0
M  END
$$$$
