
     RDKit          3D

  9  8  0  0  0  0  0  0  0  0999 V2000
   36.6770   94.4580  138.7130 C   0  0  0  0  0  0  0  0  0  0  0  0
   37.3730   93.9190  137.4730 C   0  0  0  0  0  0  0  0  0  0  0  0
   37.5130   92.4030  137.5010 C   0  0  0  0  0  0  0  0  0  0  0  0
   38.5490   91.9180  138.5120 C   0  0  0  0  0  0  0  0  0  0  0  0
   38.4570   90.3970  138.6800 C   0  0  0  0  0  0  0  0  0  0  0  0
   39.7090   89.8150  139.3180 C   0  0  0  0  0  0  0  0  0  0  0  0
   40.7290   89.4190  138.2620 C   0  0  0  0  0  0  0  0  0  0  0  0
   40.3280   88.2230  137.4180 C   0  0  0  0  0  0  0  0  0  0  0  0
   35.4560   94.2200  138.8340 O   0  0  0  0  0  0  0  0  0  0  0  0
  1  2  1  0
  1  9  1  0
  2  3  1  0
  3  4  1  0
  4  5  1  0
  5  6  1  0
  6  7  1  0
  7  8  1  0
M  END
