
     RDKit          3D

  9  8  0  0  0  0  0  0  0  0999 V2000
   -2.1530   76.0780   95.0830 C   0  0  0  0  0  0  0  0  0  0  0  0
   -1.9720   76.7620   96.4230 C   0  0  0  0  0  0  0  0  0  0  0  0
   -1.2280   75.8860   97.4250 C   0  0  0  0  0  0  0  0  0  0  0  0
   -2.0800   74.7130   97.8930 C   0  0  0  0  0  0  0  0  0  0  0  0
   -1.2370   73.6990   98.6540 C   0  0  0  0  0  0  0  0  0  0  0  0
   -2.0900   72.5950   99.2460 C   0  0  0  0  0  0  0  0  0  0  0  0
   -2.6360   72.9740  100.6210 C   0  0  0  0  0  0  0  0  0  0  0  0
   -1.5770   72.9870  101.7150 C   0  0  0  0  0  0  0  0  0  0  0  0
   -1.1220   75.8650   94.4130 O   0  0  0  0  0  0  0  0  0  0  0  0
  1  2  1  0
  1  9  1  0
  2  3  1  0
  3  4  1  0
  4  5  1  0
  5  6  1  0
  6  7  1  0
  7  8  1  0
M  END
